  
       XFOIL         Version 6.99
  
 Calculated polar for: CST-modeling                                    
  
 1 1 Reynolds number fixed          Mach number fixed         
  
 xtrf =   1.000 (top)        1.000 (bottom)  
 Mach =   0.100     Re =     1.000 e 6     Ncrit =   9.000
  
   alpha    CL        CD       CDp       CM     Top_Xtr  Bot_Xtr
  ------ -------- --------- --------- -------- -------- --------
  -2.000  -0.0381   0.00498   0.00112  -0.0559   0.9135   0.5852
  -1.000   0.0750   0.00496   0.00105  -0.0560   0.8844   0.6130
   0.000   0.1874   0.00497   0.00102  -0.0560   0.8514   0.6304
   1.000   0.2953   0.00513   0.00102  -0.0547   0.7744   0.6481
   2.000   0.3993   0.00567   0.00120  -0.0529   0.6315   0.6672
   3.000   0.4834   0.00857   0.00220  -0.0485   0.1224   0.6877
   4.000   0.5864   0.00985   0.00318  -0.0471   0.0293   0.7113
